FS2_MOE.fds
Generated by PyroSim - Version 2023.1.0426
18 Aug 2023, 10:42:32

&HEAD CHID='FS2_MOE', TITLE='FS1 MOE'/
&TIME T_END=300.0/
&DUMP DT_RESTART=300.0, DT_SL3D=0.25/

&MESH ID='Apartment_Mesh1', IJK=92,58,25, XB=26.5,35.7,-2.5,3.3,8.0,10.5/
&MESH ID='Corridor_Mesh1', IJK=207,23,25, XB=5.8,26.5,14.2,16.5,8.0,10.5/
&MESH ID='Corridor_Mesh2-01', IJK=49,89,25, XB=-0.3,4.6,-4.9,4.0,8.0,10.5/
&MESH ID='Corridor_Mesh2-02', IJK=39,102,25, XB=-0.3,3.6,4.0,14.2,8.0,10.5/
&MESH ID='Corridor_Mesh3', IJK=43,97,25, XB=1.5,5.8,14.2,23.9,8.0,10.5/
&MESH ID='Corridor_Mesh4-01', IJK=31,49,25, XB=25.1,28.2,3.3,8.2,8.0,10.5/
&MESH ID='Corridor_Mesh4-02', IJK=17,158,25, XB=26.5,28.2,8.2,24.0,8.0,10.5/
&MESH ID='Stair_Mesh_Lower1', IJK=31,14,40, XB=3.6,9.8,11.4,14.2,0.0,8.0/
&MESH ID='Stair_Mesh_Middle1', IJK=63,72,25, XB=3.6,9.9,7.0,14.2,8.0,10.5/
&MESH ID='Stair_Mesh_Upper1', IJK=31,14,125, XB=3.6,9.8,11.4,14.2,10.5,35.5/

&SPEC ID='WATER VAPOR'/
&SPEC ID='REAC_FUEL', FORMULA='C6.3H7.1O2.1N1.0'/

&PART ID='Water01',
      SPEC_ID='WATER VAPOR',
      DIAMETER=500.0,
      MONODISPERSE=.TRUE.,
      AGE=10.0,
      SAMPLING_FACTOR=1/

&REAC ID='POLYURETHANE',
      FYI='NFPA Babrauskas',
      FUEL='REAC_FUEL',
      SOOT_YIELD=0.1,
      HEAT_OF_COMBUSTION=2.0E+4/

&RAMP ID='Apartment Door Hole_RAMP', T=59.75, F=-1.0/
&RAMP ID='Apartment Door Hole_RAMP', T=60.25, F=1.0/
&RAMP ID='Apartment Door Hole_RAMP', T=79.75, F=1.0/
&RAMP ID='Apartment Door Hole_RAMP', T=80.25, F=-1.0/
&RAMP ID='Stair Door Hole_RAMP', T=69.75, F=-1.0/
&RAMP ID='Stair Door Hole_RAMP', T=70.25, F=1.0/
&RAMP ID='Stair Door Hole_RAMP', T=89.75, F=1.0/
&RAMP ID='Stair Door Hole_RAMP', T=90.25, F=-1.0/
&PROP ID='Residential Link BS 9251',
      PART_ID='Water01',
      K_FACTOR=40.0,
      OPERATING_PRESSURE=0.5,
      PARTICLE_VELOCITY=5.0,
      SPRAY_ANGLE=60.0,75.0/
&CTRL ID='invert', FUNCTION_TYPE='ALL', LATCH=.FALSE., INITIAL_STATE=.TRUE., INPUT_ID='Apartment Door Hole'/
&CTRL ID='Apartment Door Hole', FUNCTION_TYPE='CUSTOM', RAMP_ID='Apartment Door Hole_RAMP', LATCH=.FALSE., INPUT_ID='TIME'/
&CTRL ID='invert-2', FUNCTION_TYPE='ALL', LATCH=.FALSE., INITIAL_STATE=.TRUE., INPUT_ID='Stair Door Hole'/
&CTRL ID='Stair Door Hole', FUNCTION_TYPE='CUSTOM', RAMP_ID='Stair Door Hole_RAMP', LATCH=.FALSE., INPUT_ID='TIME'/
&CTRL ID='invert-3', FUNCTION_TYPE='ALL', LATCH=.FALSE., INITIAL_STATE=.TRUE., INPUT_ID='TIMER->OUT'/
&DEVC ID='SPRK1', PROP_ID='Residential Link BS 9251', XYZ=32.7,1.7,10.4, QUANTITY='TIME', SETPOINT=0.0/
&DEVC ID='SPRK2', PROP_ID='Residential Link BS 9251', XYZ=30.5,-0.6,10.4, QUANTITY='TIME', SETPOINT=0.0/
&DEVC ID='stair_temp_1', QUANTITY='TEMPERATURE', XYZ=9.05,13.65,8.5/
&DEVC ID='stair_temp_2', QUANTITY='TEMPERATURE', XYZ=9.05,13.65,9.0/
&DEVC ID='stair_temp_3', QUANTITY='TEMPERATURE', XYZ=9.05,13.65,9.5/
&DEVC ID='stair_temp_4', QUANTITY='TEMPERATURE', XYZ=9.05,13.65,10.0/
&DEVC ID='stair_temp_5', QUANTITY='TEMPERATURE', XYZ=9.15,13.15,8.5/
&DEVC ID='stair_temp_6', QUANTITY='TEMPERATURE', XYZ=9.15,13.15,9.0/
&DEVC ID='stair_temp_7', QUANTITY='TEMPERATURE', XYZ=9.15,13.15,9.5/
&DEVC ID='stair_temp_8', QUANTITY='TEMPERATURE', XYZ=9.15,13.15,10.0/
&DEVC ID='stair_vis_1', QUANTITY='VISIBILITY', XYZ=9.05,13.65,8.5/
&DEVC ID='stair_vis_2', QUANTITY='VISIBILITY', XYZ=9.05,13.65,9.0/
&DEVC ID='stair_vis_3', QUANTITY='VISIBILITY', XYZ=9.05,13.65,9.5/
&DEVC ID='stair_vis_4', QUANTITY='VISIBILITY', XYZ=9.05,13.65,10.0/
&DEVC ID='stair_vis_5', QUANTITY='VISIBILITY', XYZ=9.15,13.15,8.5/
&DEVC ID='stair_vis_6', QUANTITY='VISIBILITY', XYZ=9.15,13.15,9.0/
&DEVC ID='stair_vis_7', QUANTITY='VISIBILITY', XYZ=9.15,13.15,9.5/
&DEVC ID='stair_vis_8', QUANTITY='VISIBILITY', XYZ=9.15,13.15,10.0/
&DEVC ID='cc_temp_1', QUANTITY='TEMPERATURE', XYZ=27.6,23.6,10.0/
&DEVC ID='cc_pres_1', QUANTITY='PRESSURE', XYZ=27.6,23.6,10.0/
&DEVC ID='cc_vis_1', QUANTITY='VISIBILITY', XYZ=27.6,23.6,10.0/
&DEVC ID='cc_vel_1', QUANTITY='VELOCITY', XYZ=27.6,23.6,10.0/
&DEVC ID='cc_temp_01', QUANTITY='TEMPERATURE', XYZ=27.6,22.6,10.0/
&DEVC ID='cc_pres_01', QUANTITY='PRESSURE', XYZ=27.6,22.6,10.0/
&DEVC ID='cc_vis_01', QUANTITY='VISIBILITY', XYZ=27.6,22.6,10.0/
&DEVC ID='cc_vel_01', QUANTITY='VELOCITY', XYZ=27.6,22.6,10.0/
&DEVC ID='cc_temp_02', QUANTITY='TEMPERATURE', XYZ=27.2,21.0,10.0/
&DEVC ID='cc_pres_02', QUANTITY='PRESSURE', XYZ=27.2,21.0,10.0/
&DEVC ID='cc_vis_02', QUANTITY='VISIBILITY', XYZ=27.2,21.0,10.0/
&DEVC ID='cc_vel_02', QUANTITY='VELOCITY', XYZ=27.2,21.0,10.0/
&DEVC ID='cc_temp_03', QUANTITY='TEMPERATURE', XYZ=27.2,22.0,10.0/
&DEVC ID='cc_pres_03', QUANTITY='PRESSURE', XYZ=27.2,22.0,10.0/
&DEVC ID='cc_vis_03', QUANTITY='VISIBILITY', XYZ=27.2,22.0,10.0/
&DEVC ID='cc_vel_03', QUANTITY='VELOCITY', XYZ=27.2,22.0,10.0/
&DEVC ID='cc_temp_04', QUANTITY='TEMPERATURE', XYZ=27.2,19.0,10.0/
&DEVC ID='cc_pres_04', QUANTITY='PRESSURE', XYZ=27.2,19.0,10.0/
&DEVC ID='cc_vis_04', QUANTITY='VISIBILITY', XYZ=27.2,19.0,10.0/
&DEVC ID='cc_vel_04', QUANTITY='VELOCITY', XYZ=27.2,19.0,10.0/
&DEVC ID='cc_temp_05', QUANTITY='TEMPERATURE', XYZ=27.2,20.0,10.0/
&DEVC ID='cc_pres_05', QUANTITY='PRESSURE', XYZ=27.2,20.0,10.0/
&DEVC ID='cc_vis_05', QUANTITY='VISIBILITY', XYZ=27.2,20.0,10.0/
&DEVC ID='cc_vel_05', QUANTITY='VELOCITY', XYZ=27.2,20.0,10.0/
&DEVC ID='cc_temp_06', QUANTITY='TEMPERATURE', XYZ=27.2,15.0,10.0/
&DEVC ID='cc_pres_06', QUANTITY='PRESSURE', XYZ=27.2,15.0,10.0/
&DEVC ID='cc_vis_06', QUANTITY='VISIBILITY', XYZ=27.2,15.0,10.0/
&DEVC ID='cc_vel_06', QUANTITY='VELOCITY', XYZ=27.2,15.0,10.0/
&DEVC ID='cc_temp_07', QUANTITY='TEMPERATURE', XYZ=27.2,16.0,10.0/
&DEVC ID='cc_pres_07', QUANTITY='PRESSURE', XYZ=27.2,16.0,10.0/
&DEVC ID='cc_vis_07', QUANTITY='VISIBILITY', XYZ=27.2,16.0,10.0/
&DEVC ID='cc_vel_07', QUANTITY='VELOCITY', XYZ=27.2,16.0,10.0/
&DEVC ID='cc_temp_08', QUANTITY='TEMPERATURE', XYZ=27.2,17.0,10.0/
&DEVC ID='cc_pres_08', QUANTITY='PRESSURE', XYZ=27.2,17.0,10.0/
&DEVC ID='cc_vis_08', QUANTITY='VISIBILITY', XYZ=27.2,17.0,10.0/
&DEVC ID='cc_vel_08', QUANTITY='VELOCITY', XYZ=27.2,17.0,10.0/
&DEVC ID='cc_temp_09', QUANTITY='TEMPERATURE', XYZ=27.2,18.0,10.0/
&DEVC ID='cc_pres_09', QUANTITY='PRESSURE', XYZ=27.2,18.0,10.0/
&DEVC ID='cc_vis_09', QUANTITY='VISIBILITY', XYZ=27.2,18.0,10.0/
&DEVC ID='cc_vel_09', QUANTITY='VELOCITY', XYZ=27.2,18.0,10.0/
&DEVC ID='cc_temp_10', QUANTITY='TEMPERATURE', XYZ=27.2,7.0,10.0/
&DEVC ID='cc_pres_10', QUANTITY='PRESSURE', XYZ=27.2,7.0,10.0/
&DEVC ID='cc_vis_10', QUANTITY='VISIBILITY', XYZ=27.2,7.0,10.0/
&DEVC ID='cc_vel_10', QUANTITY='VELOCITY', XYZ=27.2,7.0,10.0/
&DEVC ID='cc_temp_11', QUANTITY='TEMPERATURE', XYZ=27.2,8.0,10.0/
&DEVC ID='cc_pres_11', QUANTITY='PRESSURE', XYZ=27.2,8.0,10.0/
&DEVC ID='cc_vis_11', QUANTITY='VISIBILITY', XYZ=27.2,8.0,10.0/
&DEVC ID='cc_vel_11', QUANTITY='VELOCITY', XYZ=27.2,8.0,10.0/
&DEVC ID='cc_temp_12', QUANTITY='TEMPERATURE', XYZ=27.2,9.0,10.0/
&DEVC ID='cc_pres_12', QUANTITY='PRESSURE', XYZ=27.2,9.0,10.0/
&DEVC ID='cc_vis_12', QUANTITY='VISIBILITY', XYZ=27.2,9.0,10.0/
&DEVC ID='cc_vel_12', QUANTITY='VELOCITY', XYZ=27.2,9.0,10.0/
&DEVC ID='cc_temp_13', QUANTITY='TEMPERATURE', XYZ=27.2,10.0,10.0/
&DEVC ID='cc_pres_13', QUANTITY='PRESSURE', XYZ=27.2,10.0,10.0/
&DEVC ID='cc_vis_13', QUANTITY='VISIBILITY', XYZ=27.2,10.0,10.0/
&DEVC ID='cc_vel_13', QUANTITY='VELOCITY', XYZ=27.2,10.0,10.0/
&DEVC ID='cc_temp_14', QUANTITY='TEMPERATURE', XYZ=27.2,13.0,10.0/
&DEVC ID='cc_pres_14', QUANTITY='PRESSURE', XYZ=27.2,13.0,10.0/
&DEVC ID='cc_vis_14', QUANTITY='VISIBILITY', XYZ=27.2,13.0,10.0/
&DEVC ID='cc_vel_14', QUANTITY='VELOCITY', XYZ=27.2,13.0,10.0/
&DEVC ID='cc_temp_15', QUANTITY='TEMPERATURE', XYZ=27.2,14.0,10.0/
&DEVC ID='cc_pres_15', QUANTITY='PRESSURE', XYZ=27.2,14.0,10.0/
&DEVC ID='cc_vis_15', QUANTITY='VISIBILITY', XYZ=27.2,14.0,10.0/
&DEVC ID='cc_vel_15', QUANTITY='VELOCITY', XYZ=27.2,14.0,10.0/
&DEVC ID='cc_temp_16', QUANTITY='TEMPERATURE', XYZ=27.2,11.0,10.0/
&DEVC ID='cc_pres_16', QUANTITY='PRESSURE', XYZ=27.2,11.0,10.0/
&DEVC ID='cc_vis_16', QUANTITY='VISIBILITY', XYZ=27.2,11.0,10.0/
&DEVC ID='cc_vel_16', QUANTITY='VELOCITY', XYZ=27.2,11.0,10.0/
&DEVC ID='cc_temp_17', QUANTITY='TEMPERATURE', XYZ=27.2,12.0,10.0/
&DEVC ID='cc_pres_17', QUANTITY='PRESSURE', XYZ=27.2,12.0,10.0/
&DEVC ID='cc_vis_17', QUANTITY='VISIBILITY', XYZ=27.2,12.0,10.0/
&DEVC ID='cc_vel_17', QUANTITY='VELOCITY', XYZ=27.2,12.0,10.0/
&DEVC ID='cc_temp_21', QUANTITY='TEMPERATURE', XYZ=27.2,2.0,10.0/
&DEVC ID='cc_pres_21', QUANTITY='PRESSURE', XYZ=27.2,2.0,10.0/
&DEVC ID='cc_vis_21', QUANTITY='VISIBILITY', XYZ=27.2,2.0,10.0/
&DEVC ID='cc_vel_21', QUANTITY='VELOCITY', XYZ=27.2,2.0,10.0/
&DEVC ID='cc_temp_22', QUANTITY='TEMPERATURE', XYZ=27.2,5.0,10.0/
&DEVC ID='cc_pres_22', QUANTITY='PRESSURE', XYZ=27.2,5.0,10.0/
&DEVC ID='cc_vis_22', QUANTITY='VISIBILITY', XYZ=27.2,5.0,10.0/
&DEVC ID='cc_vel_22', QUANTITY='VELOCITY', XYZ=27.2,5.0,10.0/
&DEVC ID='cc_temp_23', QUANTITY='TEMPERATURE', XYZ=27.2,6.0,10.0/
&DEVC ID='cc_pres_23', QUANTITY='PRESSURE', XYZ=27.2,6.0,10.0/
&DEVC ID='cc_vis_23', QUANTITY='VISIBILITY', XYZ=27.2,6.0,10.0/
&DEVC ID='cc_vel_23', QUANTITY='VELOCITY', XYZ=27.2,6.0,10.0/
&DEVC ID='cc_temp_24', QUANTITY='TEMPERATURE', XYZ=27.2,3.0,10.0/
&DEVC ID='cc_pres_24', QUANTITY='PRESSURE', XYZ=27.2,3.0,10.0/
&DEVC ID='cc_vis_24', QUANTITY='VISIBILITY', XYZ=27.2,3.0,10.0/
&DEVC ID='cc_vel_24', QUANTITY='VELOCITY', XYZ=27.2,3.0,10.0/
&DEVC ID='cc_temp_25', QUANTITY='TEMPERATURE', XYZ=27.2,4.0,10.0/
&DEVC ID='cc_pres_25', QUANTITY='PRESSURE', XYZ=27.2,4.0,10.0/
&DEVC ID='cc_vis_25', QUANTITY='VISIBILITY', XYZ=27.2,4.0,10.0/
&DEVC ID='cc_vel_25', QUANTITY='VELOCITY', XYZ=27.2,4.0,10.0/
&DEVC ID='cc_temp_18', QUANTITY='TEMPERATURE', XYZ=26.2,15.2,10.0/
&DEVC ID='cc_pres_18', QUANTITY='PRESSURE', XYZ=26.2,15.2,10.0/
&DEVC ID='cc_vis_18', QUANTITY='VISIBILITY', XYZ=26.2,15.2,10.0/
&DEVC ID='cc_vel_18', QUANTITY='VELOCITY', XYZ=26.2,15.2,10.0/
&DEVC ID='cc_temp_19', QUANTITY='TEMPERATURE', XYZ=25.2,15.2,10.0/
&DEVC ID='cc_pres_19', QUANTITY='PRESSURE', XYZ=25.2,15.2,10.0/
&DEVC ID='cc_vis_19', QUANTITY='VISIBILITY', XYZ=25.2,15.2,10.0/
&DEVC ID='cc_vel_19', QUANTITY='VELOCITY', XYZ=25.2,15.2,10.0/
&DEVC ID='cc_temp_26', QUANTITY='TEMPERATURE', XYZ=24.2,15.2,10.0/
&DEVC ID='cc_pres_26', QUANTITY='PRESSURE', XYZ=24.2,15.2,10.0/
&DEVC ID='cc_vis_26', QUANTITY='VISIBILITY', XYZ=24.2,15.2,10.0/
&DEVC ID='cc_vel_26', QUANTITY='VELOCITY', XYZ=24.2,15.2,10.0/
&DEVC ID='cc_temp_27', QUANTITY='TEMPERATURE', XYZ=22.2,15.2,10.0/
&DEVC ID='cc_pres_27', QUANTITY='PRESSURE', XYZ=22.2,15.2,10.0/
&DEVC ID='cc_vis_27', QUANTITY='VISIBILITY', XYZ=22.2,15.2,10.0/
&DEVC ID='cc_vel_27', QUANTITY='VELOCITY', XYZ=22.2,15.2,10.0/
&DEVC ID='cc_temp_28', QUANTITY='TEMPERATURE', XYZ=23.2,15.2,10.0/
&DEVC ID='cc_pres_28', QUANTITY='PRESSURE', XYZ=23.2,15.2,10.0/
&DEVC ID='cc_vis_28', QUANTITY='VISIBILITY', XYZ=23.2,15.2,10.0/
&DEVC ID='cc_vel_28', QUANTITY='VELOCITY', XYZ=23.2,15.2,10.0/
&DEVC ID='cc_temp_29', QUANTITY='TEMPERATURE', XYZ=21.2,15.2,10.0/
&DEVC ID='cc_pres_29', QUANTITY='PRESSURE', XYZ=21.2,15.2,10.0/
&DEVC ID='cc_vis_29', QUANTITY='VISIBILITY', XYZ=21.2,15.2,10.0/
&DEVC ID='cc_vel_29', QUANTITY='VELOCITY', XYZ=21.2,15.2,10.0/
&DEVC ID='cc_temp_30', QUANTITY='TEMPERATURE', XYZ=20.2,15.2,10.0/
&DEVC ID='cc_pres_30', QUANTITY='PRESSURE', XYZ=20.2,15.2,10.0/
&DEVC ID='cc_vis_30', QUANTITY='VISIBILITY', XYZ=20.2,15.2,10.0/
&DEVC ID='cc_vel_30', QUANTITY='VELOCITY', XYZ=20.2,15.2,10.0/
&DEVC ID='cc_temp_31', QUANTITY='TEMPERATURE', XYZ=19.2,15.2,10.0/
&DEVC ID='cc_pres_31', QUANTITY='PRESSURE', XYZ=19.2,15.2,10.0/
&DEVC ID='cc_vis_31', QUANTITY='VISIBILITY', XYZ=19.2,15.2,10.0/
&DEVC ID='cc_vel_31', QUANTITY='VELOCITY', XYZ=19.2,15.2,10.0/
&DEVC ID='cc_temp_32', QUANTITY='TEMPERATURE', XYZ=18.2,15.2,10.0/
&DEVC ID='cc_pres_32', QUANTITY='PRESSURE', XYZ=18.2,15.2,10.0/
&DEVC ID='cc_vis_32', QUANTITY='VISIBILITY', XYZ=18.2,15.2,10.0/
&DEVC ID='cc_vel_32', QUANTITY='VELOCITY', XYZ=18.2,15.2,10.0/
&DEVC ID='cc_temp_33', QUANTITY='TEMPERATURE', XYZ=11.2,15.2,10.0/
&DEVC ID='cc_pres_33', QUANTITY='PRESSURE', XYZ=11.2,15.2,10.0/
&DEVC ID='cc_vis_33', QUANTITY='VISIBILITY', XYZ=11.2,15.2,10.0/
&DEVC ID='cc_vel_33', QUANTITY='VELOCITY', XYZ=11.2,15.2,10.0/
&DEVC ID='cc_temp_34', QUANTITY='TEMPERATURE', XYZ=12.2,15.2,10.0/
&DEVC ID='cc_pres_34', QUANTITY='PRESSURE', XYZ=12.2,15.2,10.0/
&DEVC ID='cc_vis_34', QUANTITY='VISIBILITY', XYZ=12.2,15.2,10.0/
&DEVC ID='cc_vel_34', QUANTITY='VELOCITY', XYZ=12.2,15.2,10.0/
&DEVC ID='cc_temp_35', QUANTITY='TEMPERATURE', XYZ=15.2,15.2,10.0/
&DEVC ID='cc_pres_35', QUANTITY='PRESSURE', XYZ=15.2,15.2,10.0/
&DEVC ID='cc_vis_35', QUANTITY='VISIBILITY', XYZ=15.2,15.2,10.0/
&DEVC ID='cc_vel_35', QUANTITY='VELOCITY', XYZ=15.2,15.2,10.0/
&DEVC ID='cc_temp_36', QUANTITY='TEMPERATURE', XYZ=13.2,15.2,10.0/
&DEVC ID='cc_pres_36', QUANTITY='PRESSURE', XYZ=13.2,15.2,10.0/
&DEVC ID='cc_vis_36', QUANTITY='VISIBILITY', XYZ=13.2,15.2,10.0/
&DEVC ID='cc_vel_36', QUANTITY='VELOCITY', XYZ=13.2,15.2,10.0/
&DEVC ID='cc_temp_37', QUANTITY='TEMPERATURE', XYZ=14.2,15.2,10.0/
&DEVC ID='cc_pres_37', QUANTITY='PRESSURE', XYZ=14.2,15.2,10.0/
&DEVC ID='cc_vis_37', QUANTITY='VISIBILITY', XYZ=14.2,15.2,10.0/
&DEVC ID='cc_vel_37', QUANTITY='VELOCITY', XYZ=14.2,15.2,10.0/
&DEVC ID='cc_temp_38', QUANTITY='TEMPERATURE', XYZ=16.2,15.2,10.0/
&DEVC ID='cc_pres_38', QUANTITY='PRESSURE', XYZ=16.2,15.2,10.0/
&DEVC ID='cc_vis_38', QUANTITY='VISIBILITY', XYZ=16.2,15.2,10.0/
&DEVC ID='cc_vel_38', QUANTITY='VELOCITY', XYZ=16.2,15.2,10.0/
&DEVC ID='cc_temp_39', QUANTITY='TEMPERATURE', XYZ=17.2,15.2,10.0/
&DEVC ID='cc_pres_39', QUANTITY='PRESSURE', XYZ=17.2,15.2,10.0/
&DEVC ID='cc_vis_39', QUANTITY='VISIBILITY', XYZ=17.2,15.2,10.0/
&DEVC ID='cc_vel_39', QUANTITY='VELOCITY', XYZ=17.2,15.2,10.0/
&DEVC ID='cc_temp_40', QUANTITY='TEMPERATURE', XYZ=9.2,15.2,10.0/
&DEVC ID='cc_pres_40', QUANTITY='PRESSURE', XYZ=9.2,15.2,10.0/
&DEVC ID='cc_vis_40', QUANTITY='VISIBILITY', XYZ=9.2,15.2,10.0/
&DEVC ID='cc_vel_40', QUANTITY='VELOCITY', XYZ=9.2,15.2,10.0/
&DEVC ID='cc_temp_41', QUANTITY='TEMPERATURE', XYZ=5.2,8.1,10.0/
&DEVC ID='cc_pres_41', QUANTITY='PRESSURE', XYZ=5.2,8.1,10.0/
&DEVC ID='cc_vis_41', QUANTITY='VISIBILITY', XYZ=5.2,8.1,10.0/
&DEVC ID='cc_vel_41', QUANTITY='VELOCITY', XYZ=5.2,8.1,10.0/
&DEVC ID='cc_temp_42', QUANTITY='TEMPERATURE', XYZ=6.2,8.1,10.0/
&DEVC ID='cc_pres_42', QUANTITY='PRESSURE', XYZ=6.2,8.1,10.0/
&DEVC ID='cc_vis_42', QUANTITY='VISIBILITY', XYZ=6.2,8.1,10.0/
&DEVC ID='cc_vel_42', QUANTITY='VELOCITY', XYZ=6.2,8.1,10.0/
&DEVC ID='cc_temp_43', QUANTITY='TEMPERATURE', XYZ=7.2,8.1,10.0/
&DEVC ID='cc_pres_43', QUANTITY='PRESSURE', XYZ=7.2,8.1,10.0/
&DEVC ID='cc_vis_43', QUANTITY='VISIBILITY', XYZ=7.2,8.1,10.0/
&DEVC ID='cc_vel_43', QUANTITY='VELOCITY', XYZ=7.2,8.1,10.0/
&DEVC ID='cc_temp_44', QUANTITY='TEMPERATURE', XYZ=10.2,15.2,10.0/
&DEVC ID='cc_pres_44', QUANTITY='PRESSURE', XYZ=10.2,15.2,10.0/
&DEVC ID='cc_vis_44', QUANTITY='VISIBILITY', XYZ=10.2,15.2,10.0/
&DEVC ID='cc_vel_44', QUANTITY='VELOCITY', XYZ=10.2,15.2,10.0/
&DEVC ID='cc_temp_45', QUANTITY='TEMPERATURE', XYZ=8.2,8.1,10.0/
&DEVC ID='cc_pres_45', QUANTITY='PRESSURE', XYZ=8.2,8.1,10.0/
&DEVC ID='cc_vis_45', QUANTITY='VISIBILITY', XYZ=8.2,8.1,10.0/
&DEVC ID='cc_vel_45', QUANTITY='VELOCITY', XYZ=8.2,8.1,10.0/
&DEVC ID='cc_temp_49', QUANTITY='TEMPERATURE', XYZ=4.575253,22.128683,10.0/
&DEVC ID='cc_pres_49', QUANTITY='PRESSURE', XYZ=4.575253,22.128683,10.0/
&DEVC ID='cc_vis_49', QUANTITY='VISIBILITY', XYZ=4.575253,22.128683,10.0/
&DEVC ID='cc_vel_49', QUANTITY='VELOCITY', XYZ=4.575253,22.128683,10.0/
&DEVC ID='cc_temp_50', QUANTITY='TEMPERATURE', XYZ=4.809091,23.100959,10.0/
&DEVC ID='cc_pres_50', QUANTITY='PRESSURE', XYZ=4.809091,23.100959,10.0/
&DEVC ID='cc_vis_50', QUANTITY='VISIBILITY', XYZ=4.809091,23.100959,10.0/
&DEVC ID='cc_vel_50', QUANTITY='VELOCITY', XYZ=4.809091,23.100959,10.0/
&DEVC ID='cc_temp_51', QUANTITY='TEMPERATURE', XYZ=4.341414,21.156408,10.0/
&DEVC ID='cc_pres_51', QUANTITY='PRESSURE', XYZ=4.341414,21.156408,10.0/
&DEVC ID='cc_vis_51', QUANTITY='VISIBILITY', XYZ=4.341414,21.156408,10.0/
&DEVC ID='cc_vel_51', QUANTITY='VELOCITY', XYZ=4.341414,21.156408,10.0/
&DEVC ID='cc_temp_52', QUANTITY='TEMPERATURE', XYZ=4.107576,20.184132,10.0/
&DEVC ID='cc_pres_52', QUANTITY='PRESSURE', XYZ=4.107576,20.184132,10.0/
&DEVC ID='cc_vis_52', QUANTITY='VISIBILITY', XYZ=4.107576,20.184132,10.0/
&DEVC ID='cc_vel_52', QUANTITY='VELOCITY', XYZ=4.107576,20.184132,10.0/
&DEVC ID='cc_temp_53', QUANTITY='TEMPERATURE', XYZ=3.873738,19.211857,10.0/
&DEVC ID='cc_pres_53', QUANTITY='PRESSURE', XYZ=3.873738,19.211857,10.0/
&DEVC ID='cc_vis_53', QUANTITY='VISIBILITY', XYZ=3.873738,19.211857,10.0/
&DEVC ID='cc_vel_53', QUANTITY='VELOCITY', XYZ=3.873738,19.211857,10.0/
&DEVC ID='cc_temp_54', QUANTITY='TEMPERATURE', XYZ=3.639899,18.239581,10.0/
&DEVC ID='cc_pres_54', QUANTITY='PRESSURE', XYZ=3.639899,18.239581,10.0/
&DEVC ID='cc_vis_54', QUANTITY='VISIBILITY', XYZ=3.639899,18.239581,10.0/
&DEVC ID='cc_vel_54', QUANTITY='VELOCITY', XYZ=3.639899,18.239581,10.0/
&DEVC ID='cc_temp_55', QUANTITY='TEMPERATURE', XYZ=2.00303,11.433653,10.0/
&DEVC ID='cc_pres_55', QUANTITY='PRESSURE', XYZ=2.00303,11.433653,10.0/
&DEVC ID='cc_vis_55', QUANTITY='VISIBILITY', XYZ=2.00303,11.433653,10.0/
&DEVC ID='cc_vel_55', QUANTITY='VELOCITY', XYZ=2.00303,11.433653,10.0/
&DEVC ID='cc_temp_56', QUANTITY='TEMPERATURE', XYZ=2.236869,12.405928,10.0/
&DEVC ID='cc_pres_56', QUANTITY='PRESSURE', XYZ=2.236869,12.405928,10.0/
&DEVC ID='cc_vis_56', QUANTITY='VISIBILITY', XYZ=2.236869,12.405928,10.0/
&DEVC ID='cc_vel_56', QUANTITY='VELOCITY', XYZ=2.236869,12.405928,10.0/
&DEVC ID='cc_temp_57', QUANTITY='TEMPERATURE', XYZ=2.938384,15.322755,10.0/
&DEVC ID='cc_pres_57', QUANTITY='PRESSURE', XYZ=2.938384,15.322755,10.0/
&DEVC ID='cc_vis_57', QUANTITY='VISIBILITY', XYZ=2.938384,15.322755,10.0/
&DEVC ID='cc_vel_57', QUANTITY='VELOCITY', XYZ=2.938384,15.322755,10.0/
&DEVC ID='cc_temp_58', QUANTITY='TEMPERATURE', XYZ=2.470707,13.378204,10.0/
&DEVC ID='cc_pres_58', QUANTITY='PRESSURE', XYZ=2.470707,13.378204,10.0/
&DEVC ID='cc_vis_58', QUANTITY='VISIBILITY', XYZ=2.470707,13.378204,10.0/
&DEVC ID='cc_vel_58', QUANTITY='VELOCITY', XYZ=2.470707,13.378204,10.0/
&DEVC ID='cc_temp_59', QUANTITY='TEMPERATURE', XYZ=2.704546,14.350479,10.0/
&DEVC ID='cc_pres_59', QUANTITY='PRESSURE', XYZ=2.704546,14.350479,10.0/
&DEVC ID='cc_vis_59', QUANTITY='VISIBILITY', XYZ=2.704546,14.350479,10.0/
&DEVC ID='cc_vel_59', QUANTITY='VELOCITY', XYZ=2.704546,14.350479,10.0/
&DEVC ID='cc_temp_60', QUANTITY='TEMPERATURE', XYZ=3.172222,16.29503,10.0/
&DEVC ID='cc_pres_60', QUANTITY='PRESSURE', XYZ=3.172222,16.29503,10.0/
&DEVC ID='cc_vis_60', QUANTITY='VISIBILITY', XYZ=3.172222,16.29503,10.0/
&DEVC ID='cc_vel_60', QUANTITY='VELOCITY', XYZ=3.172222,16.29503,10.0/
&DEVC ID='cc_temp_61', QUANTITY='TEMPERATURE', XYZ=3.406061,17.267306,10.0/
&DEVC ID='cc_pres_61', QUANTITY='PRESSURE', XYZ=3.406061,17.267306,10.0/
&DEVC ID='cc_vis_61', QUANTITY='VISIBILITY', XYZ=3.406061,17.267306,10.0/
&DEVC ID='cc_vel_61', QUANTITY='VELOCITY', XYZ=3.406061,17.267306,10.0/
&DEVC ID='cc_temp_62', QUANTITY='TEMPERATURE', XYZ=1.535354,9.489102,10.0/
&DEVC ID='cc_pres_62', QUANTITY='PRESSURE', XYZ=1.535354,9.489102,10.0/
&DEVC ID='cc_vis_62', QUANTITY='VISIBILITY', XYZ=1.535354,9.489102,10.0/
&DEVC ID='cc_vel_62', QUANTITY='VELOCITY', XYZ=1.535354,9.489102,10.0/
&DEVC ID='cc_temp_63', QUANTITY='TEMPERATURE', XYZ=0.6,5.6,10.0/
&DEVC ID='cc_pres_63', QUANTITY='PRESSURE', XYZ=0.6,5.6,10.0/
&DEVC ID='cc_vis_63', QUANTITY='VISIBILITY', XYZ=0.6,5.6,10.0/
&DEVC ID='cc_vel_63', QUANTITY='VELOCITY', XYZ=0.6,5.6,10.0/
&DEVC ID='cc_temp_64', QUANTITY='TEMPERATURE', XYZ=0.833838,6.572275,10.0/
&DEVC ID='cc_pres_64', QUANTITY='PRESSURE', XYZ=0.833838,6.572275,10.0/
&DEVC ID='cc_vis_64', QUANTITY='VISIBILITY', XYZ=0.833838,6.572275,10.0/
&DEVC ID='cc_vel_64', QUANTITY='VELOCITY', XYZ=0.833838,6.572275,10.0/
&DEVC ID='cc_temp_65', QUANTITY='TEMPERATURE', XYZ=1.067677,7.544551,10.0/
&DEVC ID='cc_pres_65', QUANTITY='PRESSURE', XYZ=1.067677,7.544551,10.0/
&DEVC ID='cc_vis_65', QUANTITY='VISIBILITY', XYZ=1.067677,7.544551,10.0/
&DEVC ID='cc_vel_65', QUANTITY='VELOCITY', XYZ=1.067677,7.544551,10.0/
&DEVC ID='cc_temp_66', QUANTITY='TEMPERATURE', XYZ=1.769192,10.461377,10.0/
&DEVC ID='cc_pres_66', QUANTITY='PRESSURE', XYZ=1.769192,10.461377,10.0/
&DEVC ID='cc_vis_66', QUANTITY='VISIBILITY', XYZ=1.769192,10.461377,10.0/
&DEVC ID='cc_vel_66', QUANTITY='VELOCITY', XYZ=1.769192,10.461377,10.0/
&DEVC ID='cc_temp_67', QUANTITY='TEMPERATURE', XYZ=1.301515,8.516826,10.0/
&DEVC ID='cc_pres_67', QUANTITY='PRESSURE', XYZ=1.301515,8.516826,10.0/
&DEVC ID='cc_vis_67', QUANTITY='VISIBILITY', XYZ=1.301515,8.516826,10.0/
&DEVC ID='cc_vel_67', QUANTITY='VELOCITY', XYZ=1.301515,8.516826,10.0/
&DEVC ID='cc_temp_46', QUANTITY='TEMPERATURE', XYZ=4.2,8.1,10.0/
&DEVC ID='cc_pres_46', QUANTITY='PRESSURE', XYZ=4.2,8.1,10.0/
&DEVC ID='cc_vis_46', QUANTITY='VISIBILITY', XYZ=4.2,8.1,10.0/
&DEVC ID='cc_vel_46', QUANTITY='VELOCITY', XYZ=4.2,8.1,10.0/
&DEVC ID='cc_temp_47', QUANTITY='TEMPERATURE', XYZ=3.2,8.1,10.0/
&DEVC ID='cc_pres_47', QUANTITY='PRESSURE', XYZ=3.2,8.1,10.0/
&DEVC ID='cc_vis_47', QUANTITY='VISIBILITY', XYZ=3.2,8.1,10.0/
&DEVC ID='cc_vel_47', QUANTITY='VELOCITY', XYZ=3.2,8.1,10.0/
&DEVC ID='cc_temp_48', QUANTITY='TEMPERATURE', XYZ=2.2,8.1,10.0/
&DEVC ID='cc_pres_48', QUANTITY='PRESSURE', XYZ=2.2,8.1,10.0/
&DEVC ID='cc_vis_48', QUANTITY='VISIBILITY', XYZ=2.2,8.1,10.0/
&DEVC ID='cc_vel_48', QUANTITY='VELOCITY', XYZ=2.2,8.1,10.0/
&DEVC ID='cc_temp_68', QUANTITY='TEMPERATURE', XYZ=1.07881,3.839654,10.0/
&DEVC ID='cc_pres_68', QUANTITY='PRESSURE', XYZ=1.07881,3.839654,10.0/
&DEVC ID='cc_vis_68', QUANTITY='VISIBILITY', XYZ=1.07881,3.839654,10.0/
&DEVC ID='cc_vel_68', QUANTITY='VELOCITY', XYZ=1.07881,3.839654,10.0/
&DEVC ID='cc_temp_69', QUANTITY='TEMPERATURE', XYZ=0.8,4.8,10.0/
&DEVC ID='cc_pres_69', QUANTITY='PRESSURE', XYZ=0.8,4.8,10.0/
&DEVC ID='cc_vis_69', QUANTITY='VISIBILITY', XYZ=0.8,4.8,10.0/
&DEVC ID='cc_vel_69', QUANTITY='VELOCITY', XYZ=0.8,4.8,10.0/
&DEVC ID='cc_temp_70', QUANTITY='TEMPERATURE', XYZ=1.35762,2.879308,10.0/
&DEVC ID='cc_pres_70', QUANTITY='PRESSURE', XYZ=1.35762,2.879308,10.0/
&DEVC ID='cc_vis_70', QUANTITY='VISIBILITY', XYZ=1.35762,2.879308,10.0/
&DEVC ID='cc_vel_70', QUANTITY='VELOCITY', XYZ=1.35762,2.879308,10.0/
&DEVC ID='cc_temp_71', QUANTITY='TEMPERATURE', XYZ=1.636431,1.918961,10.0/
&DEVC ID='cc_pres_71', QUANTITY='PRESSURE', XYZ=1.636431,1.918961,10.0/
&DEVC ID='cc_vis_71', QUANTITY='VISIBILITY', XYZ=1.636431,1.918961,10.0/
&DEVC ID='cc_vel_71', QUANTITY='VELOCITY', XYZ=1.636431,1.918961,10.0/
&DEVC ID='cc_temp_72', QUANTITY='TEMPERATURE', XYZ=1.915241,0.958615,10.0/
&DEVC ID='cc_pres_72', QUANTITY='PRESSURE', XYZ=1.915241,0.958615,10.0/
&DEVC ID='cc_vis_72', QUANTITY='VISIBILITY', XYZ=1.915241,0.958615,10.0/
&DEVC ID='cc_vel_72', QUANTITY='VELOCITY', XYZ=1.915241,0.958615,10.0/
&DEVC ID='cc_temp_73', QUANTITY='TEMPERATURE', XYZ=2.472861,-0.962077,10.0/
&DEVC ID='cc_pres_73', QUANTITY='PRESSURE', XYZ=2.472861,-0.962077,10.0/
&DEVC ID='cc_vis_73', QUANTITY='VISIBILITY', XYZ=2.472861,-0.962077,10.0/
&DEVC ID='cc_vel_73', QUANTITY='VELOCITY', XYZ=2.472861,-0.962077,10.0/
&DEVC ID='cc_temp_74', QUANTITY='TEMPERATURE', XYZ=2.751671,-1.922424,10.0/
&DEVC ID='cc_pres_74', QUANTITY='PRESSURE', XYZ=2.751671,-1.922424,10.0/
&DEVC ID='cc_vis_74', QUANTITY='VISIBILITY', XYZ=2.751671,-1.922424,10.0/
&DEVC ID='cc_vel_74', QUANTITY='VELOCITY', XYZ=2.751671,-1.922424,10.0/
&DEVC ID='cc_temp_75', QUANTITY='TEMPERATURE', XYZ=3.030482,-2.88277,10.0/
&DEVC ID='cc_pres_75', QUANTITY='PRESSURE', XYZ=3.030482,-2.88277,10.0/
&DEVC ID='cc_vis_75', QUANTITY='VISIBILITY', XYZ=3.030482,-2.88277,10.0/
&DEVC ID='cc_vel_75', QUANTITY='VELOCITY', XYZ=3.030482,-2.88277,10.0/
&DEVC ID='cc_temp_76', QUANTITY='TEMPERATURE', XYZ=3.309292,-3.843116,10.0/
&DEVC ID='cc_pres_76', QUANTITY='PRESSURE', XYZ=3.309292,-3.843116,10.0/
&DEVC ID='cc_vis_76', QUANTITY='VISIBILITY', XYZ=3.309292,-3.843116,10.0/
&DEVC ID='cc_vel_76', QUANTITY='VELOCITY', XYZ=3.309292,-3.843116,10.0/
&DEVC ID='cc_temp_78', QUANTITY='TEMPERATURE', XYZ=2.194051,-1.731134E-3,10.0/
&DEVC ID='cc_pres_78', QUANTITY='PRESSURE', XYZ=2.194051,-1.731134E-3,10.0/
&DEVC ID='cc_vis_78', QUANTITY='VISIBILITY', XYZ=2.194051,-1.731134E-3,10.0/
&DEVC ID='cc_vel_78', QUANTITY='VELOCITY', XYZ=2.194051,-1.731134E-3,10.0/
&DEVC ID='cc_temp_77', QUANTITY='TEMPERATURE', XYZ=8.2,15.2,10.0/
&DEVC ID='cc_pres_77', QUANTITY='PRESSURE', XYZ=8.2,15.2,10.0/
&DEVC ID='cc_vis_77', QUANTITY='VISIBILITY', XYZ=8.2,15.2,10.0/
&DEVC ID='cc_vel_77', QUANTITY='VELOCITY', XYZ=8.2,15.2,10.0/
&DEVC ID='cc_temp_79', QUANTITY='TEMPERATURE', XYZ=5.2,15.2,10.0/
&DEVC ID='cc_pres_79', QUANTITY='PRESSURE', XYZ=5.2,15.2,10.0/
&DEVC ID='cc_vis_79', QUANTITY='VISIBILITY', XYZ=5.2,15.2,10.0/
&DEVC ID='cc_vel_79', QUANTITY='VELOCITY', XYZ=5.2,15.2,10.0/
&DEVC ID='cc_temp_80', QUANTITY='TEMPERATURE', XYZ=4.2,15.2,10.0/
&DEVC ID='cc_pres_80', QUANTITY='PRESSURE', XYZ=4.2,15.2,10.0/
&DEVC ID='cc_vis_80', QUANTITY='VISIBILITY', XYZ=4.2,15.2,10.0/
&DEVC ID='cc_vel_80', QUANTITY='VELOCITY', XYZ=4.2,15.2,10.0/
&DEVC ID='cc_temp_81', QUANTITY='TEMPERATURE', XYZ=7.2,15.2,10.0/
&DEVC ID='cc_pres_81', QUANTITY='PRESSURE', XYZ=7.2,15.2,10.0/
&DEVC ID='cc_vis_81', QUANTITY='VISIBILITY', XYZ=7.2,15.2,10.0/
&DEVC ID='cc_vel_81', QUANTITY='VELOCITY', XYZ=7.2,15.2,10.0/
&DEVC ID='cc_temp_82', QUANTITY='TEMPERATURE', XYZ=6.2,15.2,10.0/
&DEVC ID='cc_pres_82', QUANTITY='PRESSURE', XYZ=6.2,15.2,10.0/
&DEVC ID='cc_vis_82', QUANTITY='VISIBILITY', XYZ=6.2,15.2,10.0/
&DEVC ID='cc_vel_82', QUANTITY='VELOCITY', XYZ=6.2,15.2,10.0/
&DEVC ID='cc_temp_83', QUANTITY='TEMPERATURE', XYZ=8.2,9.8,10.0/
&DEVC ID='cc_pres_83', QUANTITY='PRESSURE', XYZ=8.2,9.8,10.0/
&DEVC ID='cc_vis_83', QUANTITY='VISIBILITY', XYZ=8.2,9.8,10.0/
&DEVC ID='cc_vel_83', QUANTITY='VELOCITY', XYZ=8.2,9.8,10.0/
&DEVC ID='cc_temp_84', QUANTITY='TEMPERATURE', XYZ=8.2,10.8,10.0/
&DEVC ID='cc_pres_84', QUANTITY='PRESSURE', XYZ=8.2,10.8,10.0/
&DEVC ID='cc_vis_84', QUANTITY='VISIBILITY', XYZ=8.2,10.8,10.0/
&DEVC ID='cc_vel_84', QUANTITY='VELOCITY', XYZ=8.2,10.8,10.0/
&DEVC ID='cc_temp_85', QUANTITY='TEMPERATURE', XYZ=8.2,8.8,10.0/
&DEVC ID='cc_pres_85', QUANTITY='PRESSURE', XYZ=8.2,8.8,10.0/
&DEVC ID='cc_vis_85', QUANTITY='VISIBILITY', XYZ=8.2,8.8,10.0/
&DEVC ID='cc_vel_85', QUANTITY='VELOCITY', XYZ=8.2,8.8,10.0/
&DEVC ID='TIME', QUANTITY='TIME', XYZ=26.5,-2.5,8.0/
&DEVC ID='TIMER->OUT', QUANTITY='TIME', XYZ=26.5,-2.5,8.0, SETPOINT=80.0/

&MATL ID='GYPSUM PLASTER',
      FYI='Quintiere, Fire Behavior - NIST NRC Validation',
      SPECIFIC_HEAT=0.84,
      CONDUCTIVITY=0.48,
      DENSITY=1440.0/

&SURF ID='Plasterboard',
      COLOR='GRAY 80',
      DEFAULT=.TRUE.,
      BACKING='VOID',
      MATL_ID(1,1)='GYPSUM PLASTER',
      MATL_MASS_FRACTION(1,1)=1.0,
      THICKNESS(1)=0.05/
&SURF ID='Fire',
      COLOR='RED',
      HRRPUA=510.204082,
      TMP_FRONT=300.0/
&SURF ID='Extract',
      RGB=26,128,26,
      VOLUME_FLOW=5.0,
      RAMP_V='Extract_RAMP_V'/
&RAMP ID='Extract_RAMP_V', T=70.0, F=0.0/
&RAMP ID='Extract_RAMP_V', T=80.0, F=1.0/
&SURF ID='Inlet',
      RGB=26,204,26,
      VOLUME_FLOW=-4.0,
      RAMP_V='Inlet_RAMP_V'/
&RAMP ID='Inlet_RAMP_V', T=70.0, F=0.0/
&RAMP ID='Inlet_RAMP_V', T=80.0, F=1.0/

&OBST ID='STEP1', XB=7.6,7.8,12.7,14.2,4.0,4.127, SURF_ID='Plasterboard'/ 
&OBST ID='STEP1', XB=7.4,7.6,12.7,14.2,4.127,4.253, SURF_ID='Plasterboard'/ 
&OBST ID='STEP1', XB=7.2,7.4,12.7,14.2,4.253,4.38, SURF_ID='Plasterboard'/ 
&OBST ID='STEP1', XB=7.0,7.2,12.7,14.2,4.38,4.507, SURF_ID='Plasterboard'/ 
&OBST ID='STEP1', XB=6.8,7.0,12.7,14.2,4.507,4.633, SURF_ID='Plasterboard'/ 
&OBST ID='STEP1', XB=6.6,6.8,12.7,14.2,4.633,4.76, SURF_ID='Plasterboard'/ 
&OBST ID='STEP1', XB=6.4,6.6,12.7,14.2,4.76,4.887, SURF_ID='Plasterboard'/ 
&OBST ID='STEP1', XB=6.2,6.4,12.7,14.2,4.887,5.013, SURF_ID='Plasterboard'/ 
&OBST ID='STEP1', XB=6.0,6.2,12.7,14.2,5.013,5.14, SURF_ID='Plasterboard'/ 
&OBST ID='STEP1', XB=5.8,6.0,12.7,14.2,5.14,5.267, SURF_ID='Plasterboard'/ 
&OBST ID='STEP1', XB=5.6,5.8,12.7,14.2,5.267,5.393, SURF_ID='Plasterboard'/ 
&OBST ID='STEP1', XB=5.4,5.6,12.7,14.2,5.393,5.52, SURF_ID='Plasterboard'/ 
&OBST ID='STEP1', XB=5.2,5.4,12.7,14.2,5.52,5.647, SURF_ID='Plasterboard'/ 
&OBST ID='STEP1', XB=5.0,5.2,12.7,14.2,5.647,5.773, SURF_ID='Plasterboard'/ 
&OBST ID='STEP1', XB=4.8,5.0,12.7,14.2,5.773,5.9, SURF_ID='Plasterboard'/ 
&OBST ID='STEP1', XB=7.6,7.8,12.7,14.2,7.8,7.903, SURF_ID='Plasterboard'/ 
&OBST ID='STEP1', XB=7.4,7.6,12.7,14.2,7.903,8.007, SURF_ID='Plasterboard'/ 
&OBST ID='STEP1', XB=7.2,7.4,12.7,14.2,8.007,8.11, SURF_ID='Plasterboard'/ 
&OBST ID='STEP1', XB=7.0,7.2,12.7,14.2,8.11,8.213, SURF_ID='Plasterboard'/ 
&OBST ID='STEP1', XB=6.8,7.0,12.7,14.2,8.213,8.317, SURF_ID='Plasterboard'/ 
&OBST ID='STEP1', XB=6.6,6.8,12.7,14.2,8.317,8.42, SURF_ID='Plasterboard'/ 
&OBST ID='STEP1', XB=6.4,6.6,12.7,14.2,8.42,8.523, SURF_ID='Plasterboard'/ 
&OBST ID='STEP1', XB=6.2,6.4,12.7,14.2,8.523,8.627, SURF_ID='Plasterboard'/ 
&OBST ID='STEP1', XB=6.0,6.2,12.7,14.2,8.627,8.73, SURF_ID='Plasterboard'/ 
&OBST ID='STEP1', XB=5.8,6.0,12.7,14.2,8.73,8.833, SURF_ID='Plasterboard'/ 
&OBST ID='STEP1', XB=5.6,5.8,12.7,14.2,8.833,8.937, SURF_ID='Plasterboard'/ 
&OBST ID='STEP1', XB=5.4,5.6,12.7,14.2,8.937,9.04, SURF_ID='Plasterboard'/ 